CPDS_validation_cosim/Distribution/Bus11/IEEE8500/IEEE8500_Power_elem_kVA.txt

CIRCUIT ELEMENT POWER FLOW

(Power Flow into element from indicated Bus)

Power Delivery Elements

  Bus                Phase     kW     +j   kvar         kVA         PF

ELEMENT = "Vsource.SOURCE"
SOURCEBUS                1     -3486.3 +j   -252.2     3495.4       0.9974
SOURCEBUS                2     -3560.4 +j   -171.5     3564.5       0.9988
SOURCEBUS                3     -3593.3 +j   -276.0     3603.9       0.9971
   TERMINAL TOTAL ............-10640.0 +j   -699.7    10663.0       0.9978
SOURCEBUS                0         0.0 +j      0.0        0.0       1.0000
SOURCEBUS                0         0.0 +j      0.0        0.0       1.0000
SOURCEBUS                0         0.0 +j      0.0        0.0       1.0000
   TERMINAL TOTAL ............     0.0 +j      0.0        0.0       1.0000

ELEMENT = "Line.HVMV_SUB_CONNECTOR"
_HVMV_SUB_LSB            1      3461.7 +j     -7.0     3461.7      -1.0000
_HVMV_SUB_LSB            2      3444.9 +j     53.9     3445.3       0.9999
_HVMV_SUB_LSB            3      3682.9 +j    -46.1     3683.2      -0.9999
   TERMINAL TOTAL ............ 10589.6 +j      0.8    10589.6       1.0000
HVMV_SUB_48332           1     -3461.7 +j      7.1     3461.7      -1.0000
HVMV_SUB_48332           2     -3444.9 +j    -53.9     3445.3       0.9999
HVMV_SUB_48332           3     -3682.9 +j     46.1     3683.2      -0.9999
   TERMINAL TOTAL ............-10589.6 +j     -0.8    10589.6       1.0000

ELEMENT = "Line.LN5502549-1"
M1009763                 2        11.4 +j      3.1       11.8       0.9662
   TERMINAL TOTAL ............    11.4 +j      3.1       11.8       0.9662
L2673322                 2       -11.4 +j     -3.1       11.8       0.9662
   TERMINAL TOTAL ............   -11.4 +j     -3.1       11.8       0.9662

ELEMENT = "Line.LN6259988-1"
M1069148                 3         9.7 +j      2.6       10.1       0.9665
   TERMINAL TOTAL ............     9.7 +j      2.6       10.1       0.9665
L2673309                 3        -9.7 +j     -2.6       10.1       0.9661
   TERMINAL TOTAL ............    -9.7 +j     -2.6       10.1       0.9661

ELEMENT = "Line.LN6077796-1"
M1069588                 2        10.5 +j      2.8       10.9       0.9663
   TERMINAL TOTAL ............    10.5 +j      2.8       10.9       0.9663
L2804270                 2       -10.5 +j     -2.8       10.9       0.9662
   TERMINAL TOTAL ............   -10.5 +j     -2.8       10.9       0.9662

ELEMENT = "Line.LN5835135-2"
M3036164                 2        91.5 +j     24.2       94.6       0.9669
   TERMINAL TOTAL ............    91.5 +j     24.2       94.6       0.9669
L2935553                 2       -91.5 +j    -24.1       94.6       0.9669
   TERMINAL TOTAL ............   -91.5 +j    -24.1       94.6       0.9669

ELEMENT = "Line.LN5896826-1"
M1209749                 2         6.1 +j      1.6        6.3       0.9671
   TERMINAL TOTAL ............     6.1 +j      1.6        6.3       0.9671
L2748840                 2        -6.1 +j     -1.6        6.3       0.9660
   TERMINAL TOTAL ............    -6.1 +j     -1.6        6.3       0.9660

ELEMENT = "Line.LN5714038-1"
M1108264                 2        14.4 +j      3.7       14.9       0.9680
   TERMINAL TOTAL ............    14.4 +j      3.7       14.9       0.9680
M1108263                 2       -14.4 +j     -3.8       14.9       0.9678
   TERMINAL TOTAL ............   -14.4 +j     -3.8       14.9       0.9678

ELEMENT = "Line.LN5653457-1"
L3085398                 1       109.7 +j     29.0      113.5       0.9668
L3085398                 2       244.6 +j     65.3      253.1       0.9661
L3085398                 3       107.6 +j     28.4      111.3       0.9670
   TERMINAL TOTAL ............   461.9 +j    122.6      477.9       0.9665
M1026891                 1      -109.7 +j    -29.0      113.4       0.9668
M1026891                 2      -244.4 +j    -65.2      252.9       0.9662
M1026891                 3      -107.6 +j    -28.4      111.2       0.9670
   TERMINAL TOTAL ............  -461.6 +j   -122.6      477.6       0.9665

ELEMENT = "Line.LN5835173-1"
L3216367                 1       162.3 +j     42.6      167.8       0.9673
L3216367                 2       358.2 +j     97.1      371.1       0.9651
L3216367                 3       310.4 +j     83.3      321.4       0.9659
   TERMINAL TOTAL ............   830.9 +j    222.9      860.3       0.9658
M1069468                 1      -162.3 +j    -42.6      167.8       0.9673
M1069468                 2      -358.1 +j    -97.1      371.0       0.9652
M1069468                 3      -310.4 +j    -83.2      321.4       0.9659
   TERMINAL TOTAL ............  -830.8 +j   -222.8      860.2       0.9659

ELEMENT = "Line.LN6321415-1"
M1142800                 2         9.7 +j      2.5       10.0       0.9680
   TERMINAL TOTAL ............     9.7 +j      2.5       10.0       0.9680
M1142799                 2        -9.7 +j     -2.5       10.0       0.9677
   TERMINAL TOTAL ............    -9.7 +j     -2.5       10.0       0.9677

ELEMENT = "Line.LN5565092-1"
M1047592                 3        14.8 +j      3.9       15.3       0.9663
   TERMINAL TOTAL ............    14.8 +j      3.9       15.3       0.9663
P827512                  3       -14.8 +j     -3.9       15.3       0.9663
   TERMINAL TOTAL ............   -14.8 +j     -3.9       15.3       0.9663

ELEMENT = "Line.LN6073648-1"
M1047339                 1        19.4 +j      5.2       20.1       0.9665
   TERMINAL TOTAL ............    19.4 +j      5.2       20.1       0.9665
P895104                  1       -19.4 +j     -5.2       20.1       0.9665
   TERMINAL TOTAL ............   -19.4 +j     -5.2       20.1       0.9665

ELEMENT = "Line.LN5774457-1"
M1026915                 1       162.3 +j     43.2      167.9       0.9664
M1026915                 2       141.8 +j     37.3      146.6       0.9671
M1026915                 3       152.2 +j     40.3      157.5       0.9667
   TERMINAL TOTAL ............   456.3 +j    120.8      472.0       0.9667
M1026920                 1      -162.2 +j    -43.1      167.9       0.9664
M1026920                 2      -141.7 +j    -37.3      146.6       0.9671
M1026920                 3      -152.2 +j    -40.3      157.5       0.9667
   TERMINAL TOTAL ............  -456.2 +j   -120.7      471.9       0.9667

ELEMENT = "Line.LN5534966-3"
N1138596                 1        62.8 +j     16.8       65.0       0.9662
   TERMINAL TOTAL ............    62.8 +j     16.8       65.0       0.9662
L3254207                 1       -62.8 +j    -16.8       65.0       0.9662
   TERMINAL TOTAL ............   -62.8 +j    -16.8       65.0       0.9662

ELEMENT = "Line.LN5859996-1"
M1069464                 2        16.4 +j      4.4       16.9       0.9663
   TERMINAL TOTAL ............    16.4 +j      4.4       16.9       0.9663
P873787                  2       -16.4 +j     -4.4       16.9       0.9662
   TERMINAL TOTAL ............   -16.4 +j     -4.4       16.9       0.9662

ELEMENT = "Line.LN6138610-2"
N1144665                 1       673.5 +j    180.3      697.2       0.9660
N1144665                 2       529.9 +j    144.1      549.1       0.9650
N1144665                 3       685.4 +j    185.2      710.0       0.9654
   TERMINAL TOTAL ............  1888.8 +j    509.6     1956.3       0.9655
M1047515                 1      -673.1 +j   -180.1      696.8       0.9660
M1047515                 2      -529.6 +j   -144.0      548.8       0.9650
M1047515                 3      -684.9 +j   -185.1      709.5       0.9654
   TERMINAL TOTAL ............ -1887.6 +j   -509.2     1955.1       0.9655

ELEMENT = "Line.LN6258435-3"
N1137002                 1        14.7 +j      3.9       15.2       0.9662
   TERMINAL TOTAL ............    14.7 +j      3.9       15.2       0.9662
M1047707                 1       -14.7 +j     -3.9       15.2       0.9661
   TERMINAL TOTAL ............   -14.7 +j     -3.9       15.2       0.9661

ELEMENT = "Line.LN5804790-1"
L2729406                 3         9.9 +j      2.6       10.3       0.9667
   TERMINAL TOTAL ............     9.9 +j      2.6       10.3       0.9667
L2897768                 3        -9.9 +j     -2.7       10.3       0.9661
   TERMINAL TOTAL ............    -9.9 +j     -2.7       10.3       0.9661

ELEMENT = "Line.LN6900591-14"
L3649301                 1        26.2 +j      7.0       27.1       0.9661
   TERMINAL TOTAL ............    26.2 +j      7.0       27.1       0.9661
L3649302                 1       -26.2 +j     -7.0       27.1       0.9661
   TERMINAL TOTAL ............   -26.2 +j     -7.0       27.1       0.9661

ELEMENT = "Line.LN6409873-1"
L2970842                 2        69.6 +j     18.1       71.9       0.9678
   TERMINAL TOTAL ............    69.6 +j     18.1       71.9       0.9678
M1089113                 2       -69.6 +j    -18.1       71.9       0.9678
   TERMINAL TOTAL ............   -69.6 +j    -18.1       71.9       0.9678

ELEMENT = "Line.LN6014135-1"
M1047312                 1        60.1 +j     16.0       62.2       0.9663
   TERMINAL TOTAL ............    60.1 +j     16.0       62.2       0.9663
P893163                  1       -60.1 +j    -16.0       62.2       0.9663
   TERMINAL TOTAL ............   -60.1 +j    -16.0       62.2       0.9663

ELEMENT = "Line.LN6077784-1"
L2822871                 1       316.8 +j     84.3      327.8       0.9664
L2822871                 2       408.6 +j    109.8      423.1       0.9658
L2822871                 3       285.7 +j     75.7      295.6       0.9666
   TERMINAL TOTAL ............  1011.2 +j    269.8     1046.6       0.9662
M1026872                 1      -316.7 +j    -84.2      327.7       0.9664
M1026872                 2      -408.5 +j   -109.6      423.0       0.9658
M1026872                 3      -285.7 +j    -75.7      295.6       0.9666
   TERMINAL TOTAL ............ -1010.9 +j   -269.6     1046.2       0.9662

ELEMENT = "Line.LN5744338-1"
M1026312                 2       151.6 +j     40.4      156.9       0.9662
   TERMINAL TOTAL ............   151.6 +j     40.4      156.9       0.9662
L2973163                 2      -151.5 +j    -40.4      156.8       0.9663
   TERMINAL TOTAL ............  -151.5 +j    -40.4      156.8       0.9663

ELEMENT = "Line.LN6991381-4"
L3728038                 1        29.0 +j      7.8       30.1       0.9661
   TERMINAL TOTAL ............    29.0 +j      7.8       30.1       0.9661
L3728039                 1       -29.0 +j     -7.8       30.1       0.9660
   TERMINAL TOTAL ............   -29.0 +j     -7.8       30.1       0.9660

ELEMENT = "Line.LN5774480-1"
M1069567                 2       197.8 +j     52.7      204.7       0.9662
   TERMINAL TOTAL ............   197.8 +j     52.7      204.7       0.9662
M1069582                 2      -197.6 +j    -52.6      204.5       0.9663
   TERMINAL TOTAL ............  -197.6 +j    -52.6      204.5       0.9663

ELEMENT = "Line.LN5986938-3"
N1140830                 1        29.4 +j      7.8       30.4       0.9669
   TERMINAL TOTAL ............    29.4 +j      7.8       30.4       0.9669
L3216351                 1       -29.4 +j     -7.8       30.4       0.9669
   TERMINAL TOTAL ............   -29.4 +j     -7.8       30.4       0.9669

ELEMENT = "Line.LN5894230-1"
L2952007                 3        10.4 +j      2.8       10.8       0.9665
   TERMINAL TOTAL ............    10.4 +j      2.8       10.8       0.9665
L2861158                 3       -10.4 +j     -2.8       10.8       0.9661
   TERMINAL TOTAL ............   -10.4 +j     -2.8       10.8       0.9661

ELEMENT = "Line.LN5683858-3"
N1140827                 1        14.0 +j      3.7       14.5       0.9662
N1140827                 2        25.0 +j      6.7       25.9       0.9664
N1140827                 3        19.0 +j      5.0       19.6       0.9664
   TERMINAL TOTAL ............    58.0 +j     15.4       60.0       0.9664
M1026726                 1       -14.0 +j     -3.7       14.5       0.9661
M1026726                 2       -25.0 +j     -6.7       25.9       0.9664
M1026726                 3       -19.0 +j     -5.0       19.6       0.9664
   TERMINAL TOTAL ............   -58.0 +j    -15.4       60.0       0.9663

ELEMENT = "Line.LN5920279-5"
L2730106                 1      1886.9 +j    231.2     1901.1       0.9926
L2730106                 2      1888.0 +j    251.0     1904.7       0.9913
L2730106                 3      1588.0 +j     65.9     1589.3       0.9991
   TERMINAL TOTAL ............  5363.0 +j    548.1     5390.9       0.9948
N1142099                 1     -1886.6 +j   -230.6     1900.6       0.9926
N1142099                 2     -1887.8 +j   -250.3     1904.3       0.9913
N1142099                 3     -1587.9 +j    -65.6     1589.3       0.9991
   TERMINAL TOTAL ............ -5362.3 +j   -546.5     5390.0       0.9948

ELEMENT = "Line.LN6439600-1"
M1026658                 1         7.0 +j      1.9        7.3       0.9663
   TERMINAL TOTAL ............     7.0 +j      1.9        7.3       0.9663
L3172805                 1        -7.0 +j     -1.9        7.3       0.9659
   TERMINAL TOTAL ............    -7.0 +j     -1.9        7.3       0.9659

ELEMENT = "Line.LN5589097-1"
P895112                  1        13.3 +j      3.6       13.8       0.9660
   TERMINAL TOTAL ............    13.3 +j      3.6       13.8       0.9660
L3048962                 1       -13.3 +j     -3.6       13.8       0.9660
   TERMINAL TOTAL ............   -13.3 +j     -3.6       13.8       0.9660

ELEMENT = "Line.LN5651975-1"
L2991914                 1       340.3 +j     91.6      352.4       0.9656
L2991914                 2        89.5 +j     23.2       92.4       0.9680
L2991914                 3       219.1 +j     57.5      226.5       0.9672
   TERMINAL TOTAL ............   648.8 +j    172.3      671.3       0.9665
M1047503                 1      -340.2 +j    -91.5      352.3       0.9657
M1047503                 2       -89.4 +j    -23.2       92.4       0.9680
M1047503                 3      -219.0 +j    -57.5      226.4       0.9672
   TERMINAL TOTAL ............  -648.6 +j   -172.2      671.1       0.9665

ELEMENT = "Line.LN5865236-1"
M1047751                 1        14.5 +j      3.9       15.0       0.9662
   TERMINAL TOTAL ............    14.5 +j      3.9       15.0       0.9662
L2973154                 1       -14.5 +j     -3.9       15.0       0.9662
   TERMINAL TOTAL ............   -14.5 +j     -3.9       15.0       0.9662

ELEMENT = "Line.LN5593232-1"
L3010565                 3         9.7 +j      2.6       10.0       0.9666
   TERMINAL TOTAL ............     9.7 +j      2.6       10.0       0.9666
L2897775                 3        -9.7 +j     -2.6       10.1       0.9661
   TERMINAL TOTAL ............    -9.7 +j     -2.6       10.1       0.9661

ELEMENT = "Line.LN5740283-1"
M1125955                 3        12.6 +j      3.3       13.0       0.9664
   TERMINAL TOTAL ............    12.6 +j      3.3       13.0       0.9664
M1125957                 3       -12.6 +j     -3.3       13.0       0.9664
   TERMINAL TOTAL ............   -12.6 +j     -3.3       13.0       0.9664

ELEMENT = "Line.LN6106559-1"
M1069640                 2        24.4 +j      6.5       25.3       0.9665
   TERMINAL TOTAL ............    24.4 +j      6.5       25.3       0.9665
L2804269                 2       -24.4 +j     -6.5       25.3       0.9664
   TERMINAL TOTAL ............   -24.4 +j     -6.5       25.3       0.9664

ELEMENT = "Line.LN5714056-3"
M1026702                 1       280.3 +j     74.5      290.0       0.9664
M1026702                 2        68.4 +j     17.9       70.7       0.9675
M1026702                 3       164.8 +j     43.5      170.4       0.9669
   TERMINAL TOTAL ............   513.5 +j    135.9      531.1       0.9667
N1139551                 1      -279.9 +j    -74.3      289.6       0.9665
N1139551                 2       -68.4 +j    -17.9       70.7       0.9674
N1139551                 3      -164.6 +j    -43.5      170.3       0.9668
   TERMINAL TOTAL ............  -512.9 +j   -135.7      530.6       0.9667

ELEMENT = "Line.LN5985355-3"
N1136355                 2       348.1 +j     93.1      360.3       0.9661
   TERMINAL TOTAL ............   348.1 +j     93.1      360.3       0.9661
L2783231                 2      -347.8 +j    -92.9      360.0       0.9661
   TERMINAL TOTAL ............  -347.8 +j    -92.9      360.0       0.9661

ELEMENT = "Line.LN5531956-1"
L2748143                 1         7.9 +j      2.1        8.2       0.9661
   TERMINAL TOTAL ............     7.9 +j      2.1        8.2       0.9661
L3251854                 1        -7.9 +j     -2.1        8.2       0.9659
   TERMINAL TOTAL ............    -7.9 +j     -2.1        8.2       0.9659

ELEMENT = "Line.LN5650048-1"
M1069610                 2         8.7 +j      2.3        9.0       0.9664
   TERMINAL TOTAL ............     8.7 +j      2.3        9.0       0.9664
M1069600                 2        -8.7 +j     -2.3        9.0       0.9663
   TERMINAL TOTAL ............    -8.7 +j     -2.3        9.0       0.9663

ELEMENT = "Line.LN6290203-1"
M1069424                 1       124.4 +j     32.6      128.6       0.9672
M1069424                 2       306.2 +j     82.6      317.1       0.9655
M1069424                 3       252.3 +j     67.2      261.1       0.9663
   TERMINAL TOTAL ............   682.9 +j    182.5      706.9       0.9661
L2935549                 1      -124.4 +j    -32.7      128.6       0.9672
L2935549                 2      -306.0 +j    -82.5      317.0       0.9655
L2935549                 3      -252.3 +j    -67.1      261.1       0.9664
   TERMINAL TOTAL ............  -682.7 +j   -182.3      706.6       0.9661

ELEMENT = "Line.LN6134414-1"
P895089                  3        20.7 +j      5.5       21.4       0.9666
   TERMINAL TOTAL ............    20.7 +j      5.5       21.4       0.9666
L3235242                 3       -20.7 +j     -5.5       21.4       0.9665
   TERMINAL TOTAL ............   -20.7 +j     -5.5       21.4       0.9665

ELEMENT = "Line.LN6259998-2"
M1026795                 3        11.7 +j      3.1       12.1       0.9663
   TERMINAL TOTAL ............    11.7 +j      3.1       12.1       0.9663
N1140522                 3       -11.7 +j     -3.1       12.1       0.9663
   TERMINAL TOTAL ............   -11.7 +j     -3.1       12.1       0.9663

ELEMENT = "Line.LN6078767-1"
L3030199                 1       690.6 +j    -91.4      696.6      -0.9914
L3030199                 2       787.8 +j    -52.7      789.6      -0.9978
L3030199                 3      1109.0 +j     16.4     1109.1       0.9999
   TERMINAL TOTAL ............  2587.4 +j   -127.7     2590.6      -0.9988
M1125934                 1      -690.6 +j     91.5      696.6      -0.9913
M1125934                 2      -787.7 +j     52.8      789.5      -0.9978
M1125934                 3     -1108.9 +j    -16.1     1109.0       0.9999
   TERMINAL TOTAL ............ -2587.2 +j    128.2     2590.4      -0.9988

ELEMENT = "Line.LN6017300-1"
M1069189                 3         5.9 +j      1.6        6.1       0.9665
   TERMINAL TOTAL ............     5.9 +j      1.6        6.1       0.9665
L2860487                 3        -5.9 +j     -1.6        6.1       0.9661
   TERMINAL TOTAL ............    -5.9 +j     -1.6        6.1       0.9661

ELEMENT = "Line.LN8979257-2"
221-312488               1         8.5 +j      2.2        8.7       0.9676
221-312488               2         9.3 +j      2.4        9.6       0.9676
221-312488               3        10.4 +j      2.7       10.7       0.9676
   TERMINAL TOTAL ............    28.2 +j      7.3       29.1       0.9676
M1089183                 1        -8.5 +j     -2.2        8.7       0.9673
M1089183                 2        -9.3 +j     -2.4        9.6       0.9673
M1089183                 3       -10.4 +j     -2.7       10.7       0.9673
   TERMINAL TOTAL ............   -28.2 +j     -7.4       29.1       0.9673

ELEMENT = "Line.LN81048109-1"
M1108464                 2        27.6 +j      7.2       28.5       0.9675
   TERMINAL TOTAL ............    27.6 +j      7.2       28.5       0.9675
L3102286                 2       -27.6 +j     -7.3       28.6       0.9671
   TERMINAL TOTAL ............   -27.6 +j     -7.3       28.6       0.9671

ELEMENT = "Line.293471"
F739845                  1         8.0 +j      2.1        8.3       0.9661
F739845                  2         8.4 +j      2.2        8.7       0.9662
F739845                  3         9.7 +j      2.6       10.0       0.9663
   TERMINAL TOTAL ............    26.1 +j      7.0       27.0       0.9662
293471                   1        -8.0 +j     -2.1        8.3       0.9659
293471                   2        -8.4 +j     -2.2        8.7       0.9661
293471                   3        -9.7 +j     -2.6       10.0       0.9661
   TERMINAL TOTAL ............   -26.1 +j     -7.0       27.0       0.9661

ELEMENT = "Line.LN5534965-2"
P827499                  1         7.2 +j      1.9        7.5       0.9660
   TERMINAL TOTAL ............     7.2 +j      1.9        7.5       0.9660
N1139254                 1        -7.2 +j     -1.9        7.5       0.9660
   TERMINAL TOTAL ............    -7.2 +j     -1.9        7.5       0.9660

ELEMENT = "Line.LN5655683-1"
M1026657                 1       109.5 +j     29.1      113.3       0.9665
   TERMINAL TOTAL ............   109.5 +j     29.1      113.3       0.9665
M1026656                 1      -109.5 +j    -29.1      113.3       0.9665
   TERMINAL TOTAL ............  -109.5 +j    -29.1      113.3       0.9665

ELEMENT = "Line.LN5686247-1"
M1108299                 2        13.5 +j      3.6       13.9       0.9667
   TERMINAL TOTAL ............    13.5 +j      3.6       13.9       0.9667
M1108300                 2       -13.5 +j     -3.6       13.9       0.9667
   TERMINAL TOTAL ............   -13.5 +j     -3.6       13.9       0.9667

ELEMENT = "Line.LN6048642-1"
L3198355                 2         0.0 +j     -0.0        0.0      -0.0000
   TERMINAL TOTAL ............     0.0 +j     -0.0        0.0      -0.0000
L2805037                 2         0.0 +j     -0.0        0.0      -0.3807
   TERMINAL TOTAL ............     0.0 +j     -0.0        0.0      -0.3807

ELEMENT = "Line.LN5928544-3"
N1137994                 3        96.4 +j     25.6       99.8       0.9665
   TERMINAL TOTAL ............    96.4 +j     25.6       99.8       0.9665
M1069484                 3       -96.4 +j    -25.6       99.8       0.9665
   TERMINAL TOTAL ............   -96.4 +j    -25.6       99.8       0.9665

ELEMENT = "Line.LN6108172-1"
L2860504                 1        14.0 +j      3.7       14.5       0.9664
   TERMINAL TOTAL ............    14.0 +j      3.7       14.5       0.9664
L2860493                 1       -14.0 +j     -3.8       14.5       0.9661
   TERMINAL TOTAL ............   -14.0 +j     -3.8       14.5       0.9661

ELEMENT = "Line.LN5532754-1"
M1026783                 1       311.5 +j     83.4      322.5       0.9660
M1026783                 2        89.4 +j     23.3       92.4       0.9677
M1026783                 3       181.2 +j     47.6      187.3       0.9672
   TERMINAL TOTAL ............   582.1 +j    154.3      602.2       0.9666
M1026780                 1      -311.5 +j    -83.4      322.4       0.9660
M1026780                 2       -89.4 +j    -23.3       92.4       0.9677
M1026780                 3      -181.2 +j    -47.6      187.3       0.9672
   TERMINAL TOTAL ............  -582.0 +j   -154.2      602.1       0.9666

ELEMENT = "Line.LN5591834-1"
P895111                  3        27.3 +j      7.2       28.2       0.9667
   TERMINAL TOTAL ............    27.3 +j      7.2       28.2       0.9667
L2895496                 3       -27.3 +j     -7.2       28.2       0.9666
   TERMINAL TOTAL ............   -27.3 +j     -7.2       28.2       0.9666

ELEMENT = "Line.LN6347196-2"
N1140819                 1       151.6 +j     40.2      156.9       0.9666
N1140819                 2        63.3 +j     16.6       65.4       0.9674
N1140819                 3       164.4 +j     43.5      170.1       0.9668
   TERMINAL TOTAL ............   379.4 +j    100.2      392.4       0.9668
M1026700                 1      -151.6 +j    -40.2      156.8       0.9666
M1026700                 2       -63.3 +j    -16.6       65.4       0.9674
M1026700                 3      -164.4 +j    -43.5      170.1       0.9668
   TERMINAL TOTAL ............  -379.3 +j   -100.2      392.3       0.9668

ELEMENT = "Line.LN5532741-1"
M1089173                 3        60.6 +j     16.0       62.7       0.9668
   TERMINAL TOTAL ............    60.6 +j     16.0       62.7       0.9668
L2935551                 3       -60.6 +j    -16.0       62.7       0.9667
   TERMINAL TOTAL ............   -60.6 +j    -16.0       62.7       0.9667

ELEMENT = "Line.LN5804803-1"
M1026344                 1         4.7 +j      1.2        4.9       0.9679
   TERMINAL TOTAL ............     4.7 +j      1.2        4.9       0.9679
M1026364                 1        -4.7 +j     -1.3        4.9       0.9662
   TERMINAL TOTAL ............    -4.7 +j     -1.3        4.9       0.9662

ELEMENT = "Line.LN6169248-1"
L2879070                 1       624.8 +j    168.8      647.2       0.9654
L2879070                 2       439.7 +j    120.1      455.8       0.9647
L2879070                 3       306.3 +j     81.2      316.9       0.9666
   TERMINAL TOTAL ............  1370.8 +j    370.1     1419.9       0.9654
L3216345                 1      -624.2 +j   -168.3      646.5       0.9655
L3216345                 2      -439.6 +j   -119.9      455.6       0.9648
L3216345                 3      -306.2 +j    -81.2      316.8       0.9666
   TERMINAL TOTAL ............ -1370.0 +j   -369.3     1418.9       0.9655

ELEMENT = "Line.LN5532786-2"
M1069428                 2        13.0 +j      3.5       13.5       0.9663
   TERMINAL TOTAL ............    13.0 +j      3.5       13.5       0.9663
N1139257                 2       -13.0 +j     -3.5       13.5       0.9663
   TERMINAL TOTAL ............   -13.0 +j     -3.5       13.5       0.9663

ELEMENT = "Line.LN5744339-1"
L2991919                 1        99.8 +j     26.6      103.3       0.9662
   TERMINAL TOTAL ............    99.8 +j     26.6      103.3       0.9662
M1026361                 1       -99.8 +j    -26.6      103.3       0.9662
   TERMINAL TOTAL ............   -99.8 +j    -26.6      103.3       0.9662

ELEMENT = "Line.LN5531255-3"
N1147857                 1        92.1 +j     24.5       95.3       0.9664
   TERMINAL TOTAL ............    92.1 +j     24.5       95.3       0.9664
M1009742                 1       -92.1 +j    -24.5       95.3       0.9664
   TERMINAL TOTAL ............   -92.1 +j    -24.5       95.3       0.9664

ELEMENT = "Line.LN5926308-2"
Q14412                   1       249.5 +j     66.1      258.1       0.9667
Q14412                   2       282.7 +j     76.3      292.9       0.9654
Q14412                   3       128.9 +j     33.8      133.2       0.9672
   TERMINAL TOTAL ............   661.1 +j    176.2      684.2       0.9663
M1047325                 1      -249.4 +j    -66.0      258.0       0.9667
M1047325                 2      -282.6 +j    -76.3      292.8       0.9654
M1047325                 3      -128.8 +j    -33.8      133.2       0.9672
   TERMINAL TOTAL ............  -660.9 +j   -176.2      684.0       0.9663

ELEMENT = "Line.LN5683856-3"
N1139263                 1         7.3 +j      1.9        7.5       0.9660
   TERMINAL TOTAL ............     7.3 +j      1.9        7.5       0.9660
L3048227                 1        -7.3 +j     -1.9        7.5       0.9659
   TERMINAL TOTAL ............    -7.3 +j     -1.9        7.5       0.9659

ELEMENT = "Line.LN6171502-1"
P827506                  1        11.6 +j      3.1       12.0       0.9664
   TERMINAL TOTAL ............    11.6 +j      3.1       12.0       0.9664
M1069469                 1       -11.6 +j     -3.1       12.0       0.9664
   TERMINAL TOTAL ............   -11.6 +j     -3.1       12.0       0.9664

ELEMENT = "Line.LN5593228-1"
M1027019                 2         8.2 +j      2.2        8.5       0.9663
   TERMINAL TOTAL ............     8.2 +j      2.2        8.5       0.9663
L2785522                 2        -8.2 +j     -2.2        8.5       0.9661
   TERMINAL TOTAL ............    -8.2 +j     -2.2        8.5       0.9661

ELEMENT = "Line.LN6380800-1"
L3216338                 2         8.1 +j      2.1        8.3       0.9663
   TERMINAL TOTAL ............     8.1 +j      2.1        8.3       0.9663
L2973146                 2        -8.1 +j     -2.2        8.3       0.9661
   TERMINAL TOTAL ............    -8.1 +j     -2.2        8.3       0.9661

ELEMENT = "Line.LN6199525-2"
M3037452                 1         3.2 +j      0.8        3.3       0.9664
   TERMINAL TOTAL ............     3.2 +j      0.8        3.3       0.9664
L2973164                 1        -3.2 +j     -0.8        3.3       0.9658
   TERMINAL TOTAL ............    -3.2 +j     -0.8        3.3       0.9658

ELEMENT = "Line.LN5772710-2"
L3120376                 1        57.7 +j     15.4       59.7       0.9662
   TERMINAL TOTAL ............    57.7 +j     15.4       59.7       0.9662
M1026925                 1       -57.7 +j    -15.4       59.7       0.9662
   TERMINAL TOTAL ............   -57.7 +j    -15.4       59.7       0.9662

ELEMENT = "Line.LN8961760-1"
M1047612                 3        34.6 +j      9.1       35.8       0.9674
   TERMINAL TOTAL ............    34.6 +j      9.1       35.8       0.9674
P828360                  3       -34.6 +j     -9.1       35.8       0.9674
   TERMINAL TOTAL ............   -34.6 +j     -9.1       35.8       0.9674

ELEMENT = "Line.LN6047556-1"
M1089195                 3        10.3 +j      2.7       10.7       0.9665
   TERMINAL TOTAL ............    10.3 +j      2.7       10.7       0.9665
L3141393                 3       -10.3 +j     -2.8       10.7       0.9661
   TERMINAL TOTAL ............   -10.3 +j     -2.8       10.7       0.9661

ELEMENT = "Line.LN6138603-1"
M1026946                 2        13.2 +j      3.5       13.6       0.9669
   TERMINAL TOTAL ............    13.2 +j      3.5       13.6       0.9669
M1026940                 2       -13.2 +j     -3.5       13.6       0.9666
   TERMINAL TOTAL ............   -13.2 +j     -3.5       13.6       0.9666

ELEMENT = "Line.LN6108139-1"
M1047471                 2         4.7 +j      1.3        4.9       0.9661
   TERMINAL TOTAL ............     4.7 +j      1.3        4.9       0.9661
L3216349                 2        -4.7 +j     -1.3        4.9       0.9660
   TERMINAL TOTAL ............    -4.7 +j     -1.3        4.9       0.9660

ELEMENT = "Line.LN6388581-2"
M1047401                 1         4.2 +j      1.1        4.3       0.9684
   TERMINAL TOTAL ............     4.2 +j      1.1        4.3       0.9684
L2748132                 1        -4.2 +j     -1.1        4.3       0.9681
   TERMINAL TOTAL ............    -4.2 +j     -1.1        4.3       0.9681

ELEMENT = "Line.LN5774460-1"
L3122820                 1         4.2 +j      1.1        4.3       0.9662
   TERMINAL TOTAL ............     4.2 +j      1.1        4.3       0.9662
L3141398                 1        -4.2 +j     -1.1        4.3       0.9659
   TERMINAL TOTAL ............    -4.2 +j     -1.1        4.3       0.9659

ELEMENT = "Line.LN5624387-1"
M1108360                 3        15.2 +j      4.0       15.7       0.9663
   TERMINAL TOTAL ............    15.2 +j      4.0       15.7       0.9663
L3048968                 3       -15.2 +j     -4.0       15.7       0.9662
   TERMINAL TOTAL ............   -15.2 +j     -4.0       15.7       0.9662

ELEMENT = "Line.LN6137087-1"
L2801950                 3        77.2 +j     20.5       79.9       0.9665
   TERMINAL TOTAL ............    77.2 +j     20.5       79.9       0.9665
M1069224                 3       -77.2 +j    -20.5       79.9       0.9665
   TERMINAL TOTAL ............   -77.2 +j    -20.5       79.9       0.9665

ELEMENT = "Line.LN6077809-1"
L2766746                 3        95.8 +j     25.5       99.2       0.9664
   TERMINAL TOTAL ............    95.8 +j     25.5       99.2       0.9664
M1027073                 3       -95.8 +j    -25.5       99.1       0.9664
   TERMINAL TOTAL ............   -95.8 +j    -25.5       99.1       0.9664

ELEMENT = "Line.LN6440079-1"
L2895496                 3        27.3 +j      7.2       28.2       0.9666
   TERMINAL TOTAL ............    27.3 +j      7.2       28.2       0.9666
M1142873                 3       -27.3 +j     -7.2       28.2       0.9666
   TERMINAL TOTAL ............   -27.3 +j     -7.2       28.2       0.9666

ELEMENT = "Line.LN5804794-1"
M1069181                 1        75.8 +j     20.2       78.4       0.9662
   TERMINAL TOTAL ............    75.8 +j     20.2       78.4       0.9662
L2973151                 1       -75.8 +j    -20.2       78.4       0.9661
   TERMINAL TOTAL ............   -75.8 +j    -20.2       78.4       0.9661

ELEMENT = "Line.LN5654484-1"
L3179682                 3        10.4 +j      2.8       10.7       0.9662
   TERMINAL TOTAL ............    10.4 +j      2.8       10.7       0.9662
L2786274                 3       -10.4 +j     -2.8       10.7       0.9661
   TERMINAL TOTAL ............   -10.4 +j     -2.8       10.7       0.9661

ELEMENT = "Line.LN5774465-1"
L3066816                 1        14.0 +j      3.6       14.4       0.9678
   TERMINAL TOTAL ............    14.0 +j      3.6       14.4       0.9678
M1026667                 1       -14.0 +j     -3.6       14.4       0.9676
   TERMINAL TOTAL ............   -14.0 +j     -3.6       14.4       0.9676

ELEMENT = "Line.LN5473349-1"
M1108529                 1      1751.4 +j    180.2     1760.7       0.9947
M1108529                 2      1856.6 +j    221.3     1869.8       0.9930
M1108529                 3      1489.9 +j     29.1     1490.1       0.9998
   TERMINAL TOTAL ............  5097.9 +j    430.6     5116.1       0.9965
M1108532                 1     -1751.0 +j   -179.7     1760.2       0.9948
M1108532                 2     -1856.4 +j   -220.6     1869.4       0.9930
M1108532                 3     -1489.8 +j    -28.8     1490.1       0.9998
   TERMINAL TOTAL ............ -5097.2 +j   -429.0     5115.2       0.9965

ELEMENT = "Line.LN6169253-1"
L2766723                 1         7.0 +j      1.9        7.3       0.9661
   TERMINAL TOTAL ............     7.0 +j      1.9        7.3       0.9661
L3122822                 1        -7.0 +j     -1.9        7.3       0.9659
   TERMINAL TOTAL ............    -7.0 +j     -1.9        7.3       0.9659

ELEMENT = "Line.LN6350536-1"
L2673312                 1         4.2 +j      1.1        4.4       0.9668
   TERMINAL TOTAL ............     4.2 +j      1.1        4.4       0.9668
L3235247                 1        -4.2 +j     -1.1        4.4       0.9659
   TERMINAL TOTAL ............    -4.2 +j     -1.1        4.4       0.9659

ELEMENT = "Line.LN6048523-1"
M1166391                 3       150.0 +j     39.8      155.2       0.9665
   TERMINAL TOTAL ............   150.0 +j     39.8      155.2       0.9665
L3254873                 3      -149.9 +j    -39.8      155.1       0.9665
   TERMINAL TOTAL ............  -149.9 +j    -39.8      155.1       0.9665

ELEMENT = "Line.LN5594152-1"
L2861157                 3       167.6 +j     44.6      173.4       0.9664
   TERMINAL TOTAL ............   167.6 +j     44.6      173.4       0.9664
P901951                  3      -167.5 +j    -44.6      173.3       0.9664
   TERMINAL TOTAL ............  -167.5 +j    -44.6      173.3       0.9664

ELEMENT = "Line.LN5865248-1"
M1047346                 1       294.1 +j     77.9      304.2       0.9667
M1047346                 2       296.3 +j     80.1      306.9       0.9654
M1047346                 3       129.0 +j     33.8      133.3       0.9674
   TERMINAL TOTAL ............   719.4 +j    191.7      744.5       0.9663
M1047345                 1      -294.0 +j    -77.8      304.1       0.9667
M1047345                 2      -296.2 +j    -80.0      306.8       0.9654
M1047345                 3      -129.0 +j    -33.8      133.3       0.9674
   TERMINAL TOTAL ............  -719.1 +j   -191.7      744.2       0.9663

ELEMENT = "Line.LN6046143-1"
L2989596                 2         3.5 +j      0.9        3.7       0.9667
   TERMINAL TOTAL ............     3.5 +j      0.9        3.7       0.9667
L2822873                 2        -3.5 +j     -0.9        3.7       0.9660
   TERMINAL TOTAL ............    -3.5 +j     -0.9        3.7       0.9660

ELEMENT = "Line.LN5803287-1"
M1108328                 3        20.5 +j      5.5       21.2       0.9663
   TERMINAL TOTAL ............    20.5 +j      5.5       21.2       0.9663
L2875754                 3       -20.5 +j     -5.5       21.2       0.9663
   TERMINAL TOTAL ............   -20.5 +j     -5.5       21.2       0.9663

ELEMENT = "Line.LN5589094-1"
L2786204                 3       232.8 +j     62.4      241.0       0.9659
   TERMINAL TOTAL ............   232.8 +j     62.4      241.0       0.9659
M1209819                 3      -232.7 +j    -62.3      240.9       0.9659
   TERMINAL TOTAL ............  -232.7 +j    -62.3      240.9       0.9659

ELEMENT = "Line.LN5954983-1"
P901972                  1        92.1 +j     24.5       95.3       0.9664
   TERMINAL TOTAL ............    92.1 +j     24.5       95.3       0.9664
M1009726                 1       -92.0 +j    -24.5       95.2       0.9664
   TERMINAL TOTAL ............   -92.0 +j    -24.5       95.2       0.9664

ELEMENT = "Line.LN5924696-2"
M1047702                 1         4.4 +j      1.2        4.6       0.9664
   TERMINAL TOTAL ............     4.4 +j      1.2        4.6       0.9664
N1137001                 1        -4.4 +j     -1.2        4.6       0.9662
   TERMINAL TOTAL ............    -4.4 +j     -1.2        4.6       0.9662

ELEMENT = "Line.LN6506311-4"
L2767340                 1        -0.0 +j     -0.0        0.0       0.0247
L2767340                 2        -0.0 +j     -0.0        0.0       0.0362
L2767340                 3         6.3 +j      1.7        6.5       0.9665
   TERMINAL TOTAL ............     6.3 +j      1.7        6.5       0.9665
M3037449                 1         0.0 +j     -0.0        0.0      -0.9964
M3037449                 2         0.0 +j     -0.0        0.0      -0.9981
M3037449                 3        -6.3 +j     -1.7        6.5       0.9664
   TERMINAL TOTAL ............    -6.3 +j     -1.7        6.5       0.9664

ELEMENT = "Line.LN5653493-1"
M1047457                 2        93.1 +j     24.8       96.4       0.9664
   TERMINAL TOTAL ............    93.1 +j     24.8       96.4       0.9664
L2710546                 2       -93.1 +j    -24.8       96.3       0.9664
   TERMINAL TOTAL ............   -93.1 +j    -24.8       96.3       0.9664

ELEMENT = "Line.LN5684836-1"
L2674027                 1      1754.1 +j    184.3     1763.7       0.9945
L2674027                 2      1858.7 +j    227.0     1872.5       0.9926
L2674027                 3      1578.3 +j     55.4     1579.3       0.9994
   TERMINAL TOTAL ............  5191.1 +j    466.7     5212.1       0.9960
L2692633                 1     -1753.1 +j   -182.8     1762.6       0.9946
L2692633                 2     -1857.9 +j   -224.9     1871.5       0.9928
L2692633                 3     -1578.2 +j    -54.3     1579.1       0.9994
   TERMINAL TOTAL ............ -5189.2 +j   -462.1     5209.7       0.9961

ELEMENT = "Line.LN5715016-3"
N1142108                 1         5.4 +j      1.4        5.6       0.9663
   TERMINAL TOTAL ............     5.4 +j      1.4        5.6       0.9663
L2674051                 1        -5.4 +j     -1.4        5.6       0.9659
   TERMINAL TOTAL ............    -5.4 +j     -1.4        5.6       0.9659

ELEMENT = "Line.LN6138614-1"
M1069135                 1       311.5 +j   -195.6      367.8      -0.8469
M1069135                 2       297.2 +j   -187.7      351.6      -0.8455
M1069135                 3       158.5 +j   -248.6      294.8      -0.5375
   TERMINAL TOTAL ............   767.2 +j   -631.9      993.9      -0.7719
R18242                   1      -311.2 +j    195.6      367.6      -0.8466
R18242                   2      -296.9 +j    187.9      351.4      -0.8451
R18242                   3      -158.3 +j    248.6      294.8      -0.5371
   TERMINAL TOTAL ............  -766.4 +j    632.1      993.5      -0.7715

ELEMENT = "Line.LN6077781-2"
M1047534                 1      1491.6 +j    408.3     1546.5       0.9645
M1047534                 2      1401.9 +j    389.6     1455.0       0.9635
M1047534                 3      1316.2 +j    354.8     1363.2       0.9655
   TERMINAL TOTAL ............  4209.7 +j   1152.7     4364.7       0.9645
N1136663                 1     -1488.0 +j   -405.2     1542.2       0.9649
N1136663                 2     -1399.4 +j   -386.9     1451.9       0.9638
N1136663                 3     -1314.2 +j   -353.1     1360.8       0.9657
   TERMINAL TOTAL ............ -4201.6 +j  -1145.2     4354.9       0.9648

ELEMENT = "Line.LN5675121-1"
M1108508                 3         4.2 +j      1.1        4.3       0.9667
   TERMINAL TOTAL ............     4.2 +j      1.1        4.3       0.9667
L3097861                 3        -4.2 +j     -1.1        4.3       0.9661
   TERMINAL TOTAL ............    -4.2 +j     -1.1        4.3       0.9661

ELEMENT = "Line.LN5773046-1"
M1069560                 2       215.4 +j     57.5      223.0       0.9662
   TERMINAL TOTAL ............   215.4 +j     57.5      223.0       0.9662
M1069567                 2      -215.3 +j    -57.4      222.8       0.9663
   TERMINAL TOTAL ............  -215.3 +j    -57.4      222.8       0.9663

ELEMENT = "Line.LN6380809-2"
L2973153                 1       133.5 +j     35.0      138.0       0.9673
L2973153                 2       405.0 +j    109.9      419.6       0.9651
L2973153                 3        55.6 +j     14.5       57.5       0.9675
   TERMINAL TOTAL ............   594.1 +j    159.4      615.1       0.9658
N1136998                 1      -133.5 +j    -35.0      138.0       0.9673
N1136998                 2      -404.9 +j   -109.9      419.6       0.9651
N1136998                 3       -55.6 +j    -14.5       57.5       0.9675
   TERMINAL TOTAL ............  -594.0 +j   -159.4      615.1       0.9658

ELEMENT = "Line.LN6018326-1"
L2898515                 3        12.8 +j      3.4       13.2       0.9667
   TERMINAL TOTAL ............    12.8 +j      3.4       13.2       0.9667
M1166387                 3       -12.8 +j     -3.4       13.2       0.9666
   TERMINAL TOTAL ............   -12.8 +j     -3.4       13.2       0.9666

ELEMENT = "Line.LN5472356-1"
M1047442                 2         3.2 +j      0.8        3.3       0.9665
   TERMINAL TOTAL ............     3.2 +j      0.8        3.3       0.9665
L3235250                 2        -3.2 +j     -0.8        3.3       0.9660
   TERMINAL TOTAL ............    -3.2 +j     -0.8        3.3       0.9660

ELEMENT = "Line.LN6139641-1"
M1142871                 1      2236.6 +j    377.6     2268.2       0.9860
M1142871                 2      2276.7 +j    428.8     2316.7       0.9827
M1142871                 3      1893.3 +j    178.8     1901.7       0.9956
   TERMINAL TOTAL ............  6406.5 +j    985.2     6481.9       0.9884
M1142874                 1     -2235.7 +j   -376.3     2267.1       0.9861
M1142874                 2     -2276.1 +j   -427.1     2315.9       0.9828
M1142874                 3     -1893.1 +j   -178.0     1901.5       0.9956
   TERMINAL TOTAL ............ -6404.9 +j   -981.4     6479.7       0.9885

ELEMENT = "Line.LN6018341-1"
L2955081                 1       646.6 +j   -105.8      655.2      -0.9869
L2955081                 2       705.3 +j    -75.6      709.3      -0.9943
L2955081                 3      1069.2 +j     -1.8     1069.2      -1.0000
   TERMINAL TOTAL ............  2421.1 +j   -183.2     2428.0      -0.9971
M1108315                 1      -646.6 +j    106.1      655.3      -0.9868
M1108315                 2      -705.0 +j     75.8      709.1      -0.9943
M1108315                 3     -1068.8 +j      2.7     1068.8      -1.0000
   TERMINAL TOTAL ............ -2420.5 +j    184.6     2427.5      -0.9971

ELEMENT = "Line.LN6017302-1"
L2973162                 1        12.6 +j      3.3       13.0       0.9671
L2973162                 2       221.9 +j     59.4      229.7       0.9660
L2973162                 3         5.8 +j      1.5        6.0       0.9681
   TERMINAL TOTAL ............   240.3 +j     64.2      248.7       0.9661
M1026333                 1       -12.6 +j     -3.3       13.0       0.9669
M1026333                 2      -221.8 +j    -59.3      229.6       0.9660
M1026333                 3        -5.8 +j     -1.5        6.0       0.9677
   TERMINAL TOTAL ............  -240.2 +j    -64.2      248.6       0.9661

ELEMENT = "Line.LN6199505-1"
M1009832                 2         3.2 +j      0.9        3.4       0.9663
   TERMINAL TOTAL ............     3.2 +j      0.9        3.4       0.9663
L2860479                 2        -3.2 +j     -0.9        3.4       0.9660
   TERMINAL TOTAL ............    -3.2 +j     -0.9        3.4       0.9660

ELEMENT = "Line.LN5682327-1"
M1026854                 1       109.1 +j     29.1      113.0       0.9662
   TERMINAL TOTAL ............   109.1 +j     29.1      113.0       0.9662
P901894                  1      -109.1 +j    -29.1      113.0       0.9662
   TERMINAL TOTAL ............  -109.1 +j    -29.1      113.0       0.9662

ELEMENT = "Line.LN6290243-1"
M1026485                 2        16.9 +j      4.5       17.5       0.9664
   TERMINAL TOTAL ............    16.9 +j      4.5       17.5       0.9664
M1026492                 2       -16.9 +j     -4.5       17.5       0.9663
   TERMINAL TOTAL ............   -16.9 +j     -4.5       17.5       0.9663

ELEMENT = "Line.X8223_48332_SW"
D6413567-3_INT           1       503.2 +j   -145.4      523.8      -0.9607
D6413567-3_INT           2       507.6 +j   -129.9      524.0      -0.9688
D6413567-3_INT           3       206.4 +j   -235.3      313.0      -0.6595
   TERMINAL TOTAL ............  1217.2 +j   -510.5     1319.9      -0.9222
E182724                  1      -503.2 +j    145.4      523.8      -0.9607
E182724                  2      -507.6 +j    129.9      524.0      -0.9688
E182724                  3      -206.4 +j    235.3      313.0      -0.6595
   TERMINAL TOTAL ............ -1217.2 +j    510.5     1319.9      -0.9222

ELEMENT = "Line.LN6413567-3"
N1139541                 1       503.3 +j   -145.3      523.9      -0.9608
N1139541                 2       507.7 +j   -129.8      524.1      -0.9688
N1139541                 3       206.4 +j   -235.2      313.0      -0.6596
   TERMINAL TOTAL ............  1217.5 +j   -510.4     1320.1      -0.9222
D6413567-3_INT           1      -503.2 +j    145.4      523.8      -0.9607
D6413567-3_INT           2      -507.6 +j    129.9      524.0      -0.9688
D6413567-3_INT           3      -206.4 +j    235.3      313.0      -0.6595
   TERMINAL TOTAL ............ -1217.2 +j    510.5     1319.9      -0.9222

ELEMENT = "Line.LN5591731-3"
M4122658                 1      1915.4 +j    242.8     1930.8       0.9921
M4122658                 2      1889.9 +j    256.6     1907.2       0.9909
M4122658                 3      1598.9 +j     71.3     1600.4       0.9990
   TERMINAL TOTAL ............  5404.2 +j    570.7     5434.3       0.9945
L2933135                 1     -1915.4 +j   -242.7     1930.7       0.9921
L2933135                 2     -1889.9 +j   -256.6     1907.2       0.9909
L2933135                 3     -1598.9 +j    -71.2     1600.4       0.9990
   TERMINAL TOTAL ............ -5404.2 +j   -570.5     5434.2       0.9945

ELEMENT = "Line.LN5653470-1"
M1026702                 1         7.1 +j      1.9        7.3       0.9662
M1026702                 2         8.4 +j      2.2        8.7       0.9663
M1026702                 3         9.6 +j      2.6        9.9       0.9664
   TERMINAL TOTAL ............    25.0 +j      6.7       25.9       0.9663
L2729414                 1        -7.1 +j     -1.9        7.3       0.9659
L2729414                 2        -8.4 +j     -2.2        8.7       0.9661
L2729414                 3        -9.6 +j     -2.6        9.9       0.9661
   TERMINAL TOTAL ............   -25.0 +j     -6.7       25.9       0.9661

ELEMENT = "Line.LN6017316-1"
L2729430                 2       198.9 +j     53.1      205.9       0.9662
   TERMINAL TOTAL ............   198.9 +j     53.1      205.9       0.9662
L2766742                 2      -198.7 +j    -53.0      205.7       0.9663
   TERMINAL TOTAL ............  -198.7 +j    -53.0      205.7       0.9663

ELEMENT = "Line.LN5926299-1"
M1026972                 2        15.8 +j      4.2       16.4       0.9663
   TERMINAL TOTAL ............    15.8 +j      4.2       16.4       0.9663
L2860483                 2       -15.8 +j     -4.2       16.4       0.9662
   TERMINAL TOTAL ............   -15.8 +j     -4.2       16.4       0.9662

ELEMENT = "Line.LN5683831-1"
L2860490                 1       294.5 +j     78.0      304.6       0.9667
L2860490                 2       296.6 +j     80.2      307.3       0.9653
L2860490                 3       158.2 +j     41.5      163.6       0.9672
   TERMINAL TOTAL ............   749.3 +j    199.7      775.5       0.9663
L3104134                 1      -294.3 +j    -77.9      304.4       0.9667
L3104134                 2      -296.4 +j    -80.1      307.1       0.9653
L3104134                 3      -158.2 +j    -41.5      163.5       0.9672
   TERMINAL TOTAL ............  -748.9 +j   -199.6      775.0       0.9663

ELEMENT = "Line.LN6352700-1"
M1089144                 1        34.8 +j      9.3       36.1       0.9664
   TERMINAL TOTAL ............    34.8 +j      9.3       36.1       0.9664
P827522                  1       -34.8 +j     -9.3       36.1       0.9664
   TERMINAL TOTAL ............   -34.8 +j     -9.3       36.1       0.9664

ELEMENT = "Line.LN6047570-1"
M1089118                 1         5.1 +j      1.4        5.3       0.9661
   TERMINAL TOTAL ............     5.1 +j      1.4        5.3       0.9661
L3048208                 1        -5.1 +j     -1.4        5.3       0.9659
   TERMINAL TOTAL ............    -5.1 +j     -1.4        5.3       0.9659

ELEMENT = "Line.LN5624342-1"
M1108505                 1      1765.1 +j    190.4     1775.4       0.9942
M1108505                 2      1883.9 +j    238.7     1899.0       0.9921
M1108505                 3      1578.7 +j     58.1     1579.7       0.9993
   TERMINAL TOTAL ............  5227.7 +j    487.2     5250.4       0.9957
L2955047                 1     -1764.3 +j   -189.2     1774.4       0.9943
L2955047                 2     -1883.3 +j   -237.0     1898.1       0.9922
L2955047                 3     -1578.6 +j    -57.2     1579.6       0.9993
   TERMINAL TOTAL ............ -5226.1 +j   -483.5     5248.4       0.9957

ELEMENT = "Line.LN6259992-1"
M1089148                 1         8.7 +j      2.3        9.0       0.9661
   TERMINAL TOTAL ............     8.7 +j      2.3        9.0       0.9661
L2766721                 1        -8.7 +j     -2.3        9.0       0.9659
   TERMINAL TOTAL ............    -8.7 +j     -2.3        9.0       0.9659

ELEMENT = "Line.LN5841919-1"
M1026745                 2         4.7 +j      1.2        4.9       0.9665
   TERMINAL TOTAL ............     4.7 +j      1.2        4.9       0.9665
L3029183                 2        -4.7 +j     -1.3        4.9       0.9660
   TERMINAL TOTAL ............    -4.7 +j     -1.3        4.9       0.9660

ELEMENT = "Line.LN6380811-1"
L2710512                 2        89.3 +j     23.7       92.4       0.9665
   TERMINAL TOTAL ............    89.3 +j     23.7       92.4       0.9665
M1047828                 2       -89.2 +j    -23.7       92.3       0.9665
   TERMINAL TOTAL ............   -89.2 +j    -23.7       92.3       0.9665

ELEMENT = "Line.LN5683832-1"
M1047342                 1         8.1 +j      2.2        8.4       0.9662
   TERMINAL TOTAL ............     8.1 +j      2.2        8.4       0.9662
L3197645                 1        -8.1 +j     -2.2        8.4       0.9659
   TERMINAL TOTAL ............    -8.1 +j     -2.2        8.4       0.9659

ELEMENT = "Line.LN6077778-1"
M1069192                 1         8.3 +j      2.2        8.6       0.9662
   TERMINAL TOTAL ............     8.3 +j      2.2        8.6       0.9662
L3235253                 1        -8.3 +j     -2.2        8.6       0.9659
   TERMINAL TOTAL ............    -8.3 +j     -2.2        8.6       0.9659

ELEMENT = "Line.LN5561442-2"
L3214071                 1      2209.4 +j    353.6     2237.5       0.9874
L3214071                 2      2267.8 +j    402.5     2303.2       0.9846
L3214071                 3      1853.7 +j    157.2     1860.3       0.9964
   TERMINAL TOTAL ............  6330.8 +j    913.2     6396.3       0.9898
M1125952                 1     -2208.1 +j   -351.7     2235.9       0.9876
M1125952                 2     -2267.0 +j   -400.1     2302.0       0.9848
M1125952                 3     -1853.5 +j   -156.1     1860.1       0.9965
   TERMINAL TOTAL ............ -6328.5 +j   -907.9     6393.3       0.9899

ELEMENT = "Line.LN6259983-1"
M1027101                 2         7.8 +j      2.1        8.1       0.9666
   TERMINAL TOTAL ............     7.8 +j      2.1        8.1       0.9666
L2860480                 2        -7.8 +j     -2.1        8.1       0.9661
   TERMINAL TOTAL ............    -7.8 +j     -2.1        8.1       0.9661

ELEMENT = "Line.LN5865244-1"
L2710517                 1        85.5 +j     22.7       88.5       0.9666
   TERMINAL TOTAL ............    85.5 +j     22.7       88.5       0.9666
M1026646                 1       -85.5 +j    -22.7       88.5       0.9666
   TERMINAL TOTAL ............   -85.5 +j    -22.7       88.5       0.9666

ELEMENT = "Line.LN6350555-1"
M1069662                 2         5.2 +j      1.4        5.4       0.9663
   TERMINAL TOTAL ............     5.2 +j      1.4        5.4       0.9663
L2935547                 2        -5.2 +j     -1.4        5.4       0.9660
   TERMINAL TOTAL ............    -5.2 +j     -1.4        5.4       0.9660

ELEMENT = "Line.LN5714039-1"
M1026931                 1        31.7 +j      8.5       32.8       0.9662
   TERMINAL TOTAL ............    31.7 +j      8.5       32.8       0.9662
L3216336                 1       -31.7 +j     -8.5       32.8       0.9662
   TERMINAL TOTAL ............   -31.7 +j     -8.5       32.8       0.9662

ELEMENT = "Line.LN5889821-1"
L3142049                 1      1868.1 +j    223.7     1881.5       0.9929
L3142049                 2      1886.8 +j    247.4     1903.0       0.9915
L3142049                 3      1583.5 +j     63.1     1584.8       0.9992
   TERMINAL TOTAL ............  5338.5 +j    534.3     5365.2       0.9950
M1108493                 1     -1866.7 +j   -221.6     1879.8       0.9930
M1108493                 2     -1885.9 +j   -244.8     1901.8       0.9917
M1108493                 3     -1583.3 +j    -61.9     1584.5       0.9992
   TERMINAL TOTAL ............ -5335.9 +j   -528.3     5362.0       0.9951

ELEMENT = "Line.LN5804791-1"
M1069169                 1       377.9 +j   -178.8      418.1      -0.9040
M1069169                 2       506.8 +j   -130.3      523.3      -0.9685
M1069169                 3       206.2 +j   -235.3      312.9      -0.6590
   TERMINAL TOTAL ............  1090.9 +j   -544.4     1219.2      -0.8948
L3010556                 1      -377.5 +j    178.8      417.7      -0.9037
L3010556                 2      -506.1 +j    130.6      522.7      -0.9683
L3010556                 3      -206.0 +j    235.4      312.8      -0.6586
   TERMINAL TOTAL ............ -1089.6 +j    544.8     1218.2      -0.8944

ELEMENT = "Line.LN5653486-1"
L2991933                 3        29.3 +j      7.8       30.3       0.9664
   TERMINAL TOTAL ............    29.3 +j      7.8       30.3       0.9664
L3122837                 3       -29.3 +j     -7.8       30.3       0.9664
   TERMINAL TOTAL ............   -29.3 +j     -7.8       30.3       0.9664

ELEMENT = "Line.LN5926286-1"
L3216336                 1        24.5 +j      6.5       25.3       0.9663
   TERMINAL TOTAL ............    24.5 +j      6.5       25.3       0.9663
L2691936                 1       -24.5 +j     -6.5       25.3       0.9662
   TERMINAL TOTAL ............   -24.5 +j     -6.5       25.3       0.9662

ELEMENT = "Line.LN6318859-1"
L2897772                 1         0.0 +j     -0.0        0.0      -0.0000
   TERMINAL TOTAL ............     0.0 +j     -0.0        0.0      -0.0000
L3101814                 1         0.0 +j      0.0        0.0       1.0000
   TERMINAL TOTAL ............     0.0 +j      0.0        0.0       1.0000

ELEMENT = "Line.LN5926316-1"
L2766732                 2        68.6 +j     18.4       71.0       0.9660
   TERMINAL TOTAL ............    68.6 +j     18.4       71.0       0.9660
M1026485                 2       -68.6 +j    -18.4       71.0       0.9660
   TERMINAL TOTAL ............   -68.6 +j    -18.4       71.0       0.9660

ELEMENT = "Line.LN5591703-1"
L2804269                 2        15.7 +j      4.2       16.2       0.9665
   TERMINAL TOTAL ............    15.7 +j      4.2       16.2       0.9665
L2989564                 2       -15.7 +j     -4.2       16.2       0.9664
   TERMINAL TOTAL ............   -15.7 +j     -4.2       16.2       0.9664

ELEMENT = "Line.LN5531333-1"
M1126016                 1        33.2 +j      8.8       34.3       0.9664
   TERMINAL TOTAL ............    33.2 +j      8.8       34.3       0.9664
L3120534                 1       -33.1 +j     -8.8       34.3       0.9664
   TERMINAL TOTAL ............   -33.1 +j     -8.8       34.3       0.9664

ELEMENT = "Line.LN6047581-1"
M1026330                 2         5.0 +j      1.3        5.1       0.9662
   TERMINAL TOTAL ............     5.0 +j      1.3        5.1       0.9662
L2766726                 2        -5.0 +j     -1.3        5.1       0.9660
   TERMINAL TOTAL ............    -5.0 +j     -1.3        5.1       0.9660

ELEMENT = "Line.LN6349077-1"
P901912                  2        -0.0 +j     -0.0        0.0       0.0000
   TERMINAL TOTAL ............    -0.0 +j     -0.0        0.0       0.0000
L3195365                 2         0.0 +j     -0.0        0.0      -0.9851
   TERMINAL TOTAL ............     0.0 +j     -0.0        0.0      -0.9851

ELEMENT = "Line.LN6350574-1"
M1108381                 1        59.1 +j     15.6       61.1       0.9669
M1108381                 2        61.3 +j     16.1       63.3       0.9671
M1108381                 3        62.2 +j     16.3       64.3       0.9672
   TERMINAL TOTAL ............   182.5 +j     48.1      188.8       0.9670
L3254237                 1       -59.1 +j    -15.6       61.1       0.9669
L3254237                 2       -61.3 +j    -16.1       63.3       0.9670
L3254237                 3       -62.2 +j    -16.4       64.3       0.9671
   TERMINAL TOTAL ............  -182.5 +j    -48.1      188.7       0.9670

ELEMENT = "Line.LN6320343-1"
L2804262                 1        97.5 +j     26.0      100.9       0.9663
   TERMINAL TOTAL ............    97.5 +j     26.0      100.9       0.9663
L2841639                 1       -97.5 +j    -26.0      100.9       0.9663
   TERMINAL TOTAL ............   -97.5 +j    -26.0      100.9       0.9663

ELEMENT = "Line.LN81048100-5"
N1230123                 2       170.9 +j     45.0      176.7       0.9670
   TERMINAL TOTAL ............   170.9 +j     45.0      176.7       0.9670
L2708744                 2      -170.9 +j    -45.0      176.7       0.9670
   TERMINAL TOTAL ............  -170.9 +j    -45.0      176.7       0.9670

ELEMENT = "Line.LN6348946-1"
M1069519                 2         8.9 +j      2.4        9.2       0.9662
   TERMINAL TOTAL ............     8.9 +j      2.4        9.2       0.9662
P901927                  2        -8.9 +j     -2.4        9.2       0.9662
...